
**** 06/10/21 15:42:00 ******* PSpice 17.4.0 (Nov 2018) ******* ID# 0 ********

 ** Profile: "SCHEMATIC1-TransientAnalysis"  [ C:\Users\a0232073\Desktop\GWL_Models\THS4551\AppendScript\THS4551-PSpiceFiles\SCHEMATI


 ****     CIRCUIT DESCRIPTION


******************************************************************************




** Creating circuit file "TransientAnalysis.cir" 
** WARNING: THIS AUTOMATICALLY GENERATED FILE MAY BE OVERWRITTEN BY SUBSEQUENT SIMULATIONS

*Libraries: 
* Profile Libraries :
* Local Libraries :
.LIB "../../../THS4551.lib" 
* From [PSPICE NETLIST] section of C:\SPB_Data\cdssetup\OrCAD_PSpiceTIPSpice_Install\17.4.0\PSpice.ini file:
.lib "nom_pspti.lib" 
.lib "nom.lib" 

*Analysis directives: 
.TRAN  0 100ns 0 0.1e-9 
.OPTIONS ADVCONV
.OPTIONS FILEMODELSEARCH
.PROBE64 V(alias(*)) I(alias(*)) W(alias(*)) D(alias(*)) NOISE(alias(*)) 
.INC "..\SCHEMATIC1.net" 



**** INCLUDING SCHEMATIC1.net ****
* source THS4551
X_U1         N03533 N03613 OUT+ OUT- VOCM VCC VEE THS4551
R_Rf2         N03613 OUT+  1e3 TC=0,0 
R_Rg1         N03523 N03533  1e3 TC=0,0 
V_V1         VCC 0 2.5Vdc
R_Rg2         0 N03613  1e3 TC=0,0 
R_Rf1         N03533 OUT-  1e3 TC=0,0 
V_V2         VEE 0 -2.5Vdc
V_V3         N03523 0  AC 1
+SIN 0 0.2 100e6 0 0 0
R_Rl         OUT+ OUT-  1e3 TC=0,0 
V_V4         VOCM 0 0Vdc

**** RESUMING TransientAnalysis.cir ****
.END

**** 06/10/21 15:42:00 ******* PSpice 17.4.0 (Nov 2018) ******* ID# 0 ********

 ** Profile: "SCHEMATIC1-TransientAnalysis"  [ C:\Users\a0232073\Desktop\GWL_Models\THS4551\AppendScript\THS4551-PSpiceFiles\SCHEMATI


 ****     Diode MODEL PARAMETERS


******************************************************************************




               X_U1.X_I_NN.DVNF 
          IS  100.000000E-18 
          KF   31.622780E-12 


               X_U1.X_I_NP.DVNF                X_U1.X_U1.DVN   X_U1.X_U2.DVN   
          IS  100.000000E-18                  100.000000E-18  100.000000E-18 
          KF   31.622780E-12                   31.622780E-12   31.622780E-12 


**** 06/10/21 15:42:00 ******* PSpice 17.4.0 (Nov 2018) ******* ID# 0 ********

 ** Profile: "SCHEMATIC1-TransientAnalysis"  [ C:\Users\a0232073\Desktop\GWL_Models\THS4551\AppendScript\THS4551-PSpiceFiles\SCHEMATI


 ****     Resistor MODEL PARAMETERS


******************************************************************************




               X_U1.R_NOISE    X_U1.R_NOISELESS 
  T_Measured   27              27            
   T_Current   27            -273.15         
           R    1               1            


**** 06/10/21 15:42:00 ******* PSpice 17.4.0 (Nov 2018) ******* ID# 0 ********

 ** Profile: "SCHEMATIC1-TransientAnalysis"  [ C:\Users\a0232073\Desktop\GWL_Models\THS4551\AppendScript\THS4551-PSpiceFiles\SCHEMATI


 ****     Voltage Controlled Switch MODEL PARAMETERS


******************************************************************************




               X_U1.X_ESD_OUT.ESD_SW 
         RON   50            
        ROFF    1.000000E+12 
         VON     .5          
        VOFF     .45         


               X_U1.X_ESD_OUT1.ESD_SW          X_U1.X_S10._S10 X_U1.X_S11._S11 
         RON   50                               1               1            
        ROFF    1.000000E+12                    1.000000E+06    1.000000E+06 
         VON     .5                              .1              .1          
        VOFF     .45                            -.1             -.1          


               X_U1.X_S12._S12 X_U1.X_S13._S13 X_U1.X_S14._S14 X_U1.X_S9._S9   
         RON    1               1               1               1            
        ROFF    1.000000E+06    2.000000E+03    2.000000E+03    1.000000E+06 
         VON     .1             4               4                .1          
        VOFF    -.1             3.5             3.5             -.1          


**** 06/10/21 15:42:00 ******* PSpice 17.4.0 (Nov 2018) ******* ID# 0 ********

 ** Profile: "SCHEMATIC1-TransientAnalysis"  [ C:\Users\a0232073\Desktop\GWL_Models\THS4551\AppendScript\THS4551-PSpiceFiles\SCHEMATI


 ****     Current Controlled Switch MODEL PARAMETERS


******************************************************************************




               X_U1.X_W1._W1   X_U1.X_W2._W2   
         RON    1               1            
        ROFF   10.000000E+06   10.000000E+06 
         ION    7.000000E-06    7.000000E-06 
        IOFF    5.000000E-06    5.000000E-06 


ERROR(ORPSIM-16583): Detected an imported model containing transistors or diodes. For such models, PSpice for TI supports a minimum of one and maximum of three traces. Reduce the number of traces and simulate again.


ABORTING SIMULATION
**** 06/10/21 15:42:00 ******* PSpice 17.4.0 (Nov 2018) ******* ID# 0 ********

 ** Profile: "SCHEMATIC1-TransientAnalysis"  [ C:\Users\a0232073\Desktop\GWL_Models\THS4551\AppendScript\THS4551-PSpiceFiles\SCHEMATI


 ****     JOB STATISTICS SUMMARY


******************************************************************************



Node counts:
  Top level (NUNODS)                =           9
  External (NCNODS)                 =         108
  Total (NUMNOD)                    =         108

Total device count (NUMEL)          =         239
  Capacitors (C)                    =          25
  Diodes (D)                        =           8
  VCVS (E)                          =          18
  VCCS (G)                          =          33
  CCVS (H)                          =           1
  Current Sources (I)               =          11
  Inductors (L)                     =           1
  Resistors (R)                     =         116
  VSwitches (S)                     =          10
  Voltage Sources (V)               =          13
  ISwitches (W)                     =           2

Number of subcircuits (X)           =          28

Matrix statistics:
  Matrix size (NSTOP)               =         141
  Initial no. elements (NTTAR)      =         558
  No. elements w/ fillin (NTTBR)    =         558
  No. fillins (IFILL)               =           0
  No. overflows (NTTOV)             =           0
  No. LU operations (IOPS)          =           0
  Percent sparsity (PERSPA)         =      97.193

Analysis statistics:
  No. total time points (NUMTTP)    =           0
  No. rejected time points (NUMRTP) =           0
  No. iterations (NUMNIT)           =           0

Load Threads                        =           1

Runtime statistics:                       Seconds      Iterations
  Matrix load                       =        0.00
  Matrix solution                   =        0.00               1
  Readin                            =        1.73
  General setup                     =        0.00
  CMI setup                     =        0.00
  Setup                             =        0.00
  DC sweep                          =        0.00               0
  Bias point                        =        0.00               0
  AC and noise                      =        0.00               0
  Total transient analysis          =        0.00
  Output                            =        0.00
  Overhead                          =         .11
  License check-out time            =       42.20
  Total job time (using Solver 1)   =        1.73
